** written by FreeCAD inp file writer for CalculiX,Abaqus meshes
** highest dimension mesh elements only.

** Nodes
*Node, NSET=Nall
*INCLUDE,INPUT=solid/flap_coord.inp

** Volume elements
*Element, TYPE=C3D10, ELSET=Evolumes
15772, 30266, 30669, 30912, 31175, 32552, 32550, 32551, 32554, 32553, 32555
15773, 30351, 1983, 30673, 30753, 32558, 32556, 32557, 32560, 32559, 32561
15774, 30187, 30678, 30894, 31087, 32564, 32562, 32563, 32566, 32565, 32567
15775, 15873, 22755, 30768, 31788, 32570, 32568, 32569, 32572, 32571, 32573
15776, 30704, 30100, 30305, 31809, 32576, 32574, 32575, 32578, 32577, 32579
15777, 672, 671, 30363, 31748, 800, 32580, 32581, 32583, 32582, 32584
15778, 31322, 15747, 22726, 31425, 32587, 32585, 32586, 32589, 32588, 32590
15779, 31341, 15948, 30472, 31942, 32593, 32591, 32592, 32595, 32594, 32596
15780, 22543, 15812, 31092, 31371, 32599, 32597, 32598, 32601, 32600, 32602
15781, 31050, 30092, 31300, 31735, 32605, 32603, 32604, 32607, 32606, 32608
15782, 31050, 30480, 30092, 31735, 32610, 32609, 32605, 32607, 32611, 32606
15783, 30772, 3267, 31277, 31663, 32614, 32612, 32613, 32616, 32615, 32617
15784, 30669, 30068, 30912, 31175, 32619, 32618, 32550, 32553, 32620, 32555
15785, 31059, 30764, 31118, 31239, 32623, 32621, 32622, 32625, 32624, 32626
15786, 30335, 3529, 30743, 31269, 32629, 32627, 32628, 32631, 32630, 32632
15787, 31155, 18253, 30963, 32474, 32635, 32633, 32634, 32637, 32636, 32638
15788, 31341, 15948, 31942, 32152, 32593, 32594, 32595, 32640, 32639, 32641
15789, 30756, 3086, 31063, 31351, 32644, 32642, 32643, 32646, 32645, 32647
15790, 17816, 30372, 31030, 32195, 32650, 32648, 32649, 32652, 32651, 32653
15791, 1481, 1494, 31664, 31779, 1708, 32654, 32655, 32657, 32656, 32658
** ... 37474 like lines cut

** Define element set Eall
*ELSET, ELSET=Eall
Evolumes



***********************************************************
** Element sets for materials and FEM element type (solid, shell, beam, fluid)
** written by write_element_sets_material_and_femelement_type function
*ELSET,ELSET=MaterialSolidSolid
Evolumes

***********************************************************
** constraints fixed node sets
** written by write_node_sets_constraints_fixed function
** ConstraintFixed
*NSET,NSET=ConstraintFixed
1,
2,
3,
4,
5,
6,
11,
12,
13,
14,
15,
16,
17,
18,
19,
20,
21,
22,
23,
24,
** ... 8516 like lines cut
** Nsurface
*NSET,NSET=Nsurface
1,
2,
3,
4,
5,
6,
7,
8,
9,
10,
11,
12,
13,
14,
15,
16,
17,
18,
19,
20,
** ... 29976 like lines cut

***********************************************************
** Materials
** written by write_materials function
** Young's modulus unit is MPa = N/mm2
** FreeCAD material name: Empty
** MaterialSolid
*MATERIAL, NAME=MaterialSolid
*ELASTIC
7e8,0.3
*DENSITY
900

***********************************************************
** Sections
** written by write_femelementsets function
*SOLID SECTION, ELSET=MaterialSolidSolid, MATERIAL=MaterialSolid

***********************************************************
** At least one step is needed to run an CalculiX analysis of FreeCAD
** written by write_step_begin function
*STEP,INC=1000000, NLGEOM
*DYNAMIC,ALPHA=-0.3
5e-4,2.0e-1,1e-5,5e-4


***********************************************************
** Fixed Constraints
** written by write_constraints_fixed function
** ConstraintFixed
*BOUNDARY
ConstraintFixed,1
ConstraintFixed,2
ConstraintFixed,3

** Nsurface
*CLOAD
Nsurface, 1, 0
Nsurface, 2, 0
Nsurface, 3, 0


***********************************************************
**** Outputs --> frd file
**** written by write_outputs_types function
*NODE FILE, FREQUENCY=5
U
*EL FILE, FREQUENCY=5
S, E
**** outputs --> dat file
**** reaction forces for Constraint fixed
***NODE PRINT, NSET=ConstraintFixed, TOTALS=ONLY
**RF
***NODE PRINT, NSET=ConstraintFixed001, TOTALS=ONLY
**RF


***********************************************************
** written by write_step_end function
*END STEP 

***********************************************************
** CalculiX Input file
** written by write_footer function
**   written by    --> FreeCAD 0.19.24267 +99 (Git)
**   written on    --> Fri Jun 24 16:14:27 2022
**   file name     --> MAAC.FCStd
**   analysis name --> Analysis
**
**
***********************************************************
**  About units:
**  See ccx manual, ccx does not know about any unit.
**  Golden rule: The user must make sure that the numbers he provides have consistent units.
**  The user is the FreeCAD calculix writer module ;-)
**
**  The unit system which is used at Guido Dhondt's company: mm, N, s, K
**  Since Length and Mass are connected by Force, if Length is mm the Mass is in t to get N
**  The following units are used to write to inp file:
**
**  Length: mm (this includes the mesh geometry)
**  Mass: t
**  TimeSpan: s
**  Temperature: K
**
**  This leads to:
**  Force: N
**  Pressure: N/mm^2
**  Density: t/mm^3
**  Gravity: mm/s^2
**  Thermal conductivity: t*mm/K/s^3 (same as W/m/K)
**  Specific Heat: mm^2/s^2/K (same as J/kg/K)
**
